<?xml version="1.0" encoding="UTF-8"?>
<routes>
  <!-- 背景车流 -->
  <flow id="bg" begin="0" end="600" vehsPerHour="2400">
    <route edges="main"/>
  </flow>

    <!-- 自动驾驶测试车 -->
  <vehicle id="AV_0" depart="20" color="1,0,0">
    <route edges="main"/>
  </vehicle>
</routes>