<?xml version="1.0" encoding="UTF-8"?>

<!-- generated on 2025-06-16 19:49:18 by Eclipse SUMO netedit Version 1.15.0
<configuration xmlns:xsi="http://www.w3.org/2001/XMLSchema-instance" xsi:noNamespaceSchemaLocation="http://sumo.dlr.de/xsd/netconvertConfiguration.xsd">

    <output>
        <output-file value="E:\Analysis and Inference\Analysis and Inference\Autonomous Transportation Semantic Interaction Simulation Platform-2025.10\ATSISP\networkFiles\Blind_Spot_Warning_or_Lane_Change_Warning\Blind_Spot_Warning_or_Lane_Change_Warning.net.xml"/>
    </output>

    <processing>
        <offset.disable-normalization value="true"/>
    </processing>

    <junctions>
        <no-turnarounds value="true"/>
    </junctions>

</configuration>
-->

<net version="1.9" junctionCornerDetail="5" limitTurnSpeed="5.50" xmlns:xsi="http://www.w3.org/2001/XMLSchema-instance" xsi:noNamespaceSchemaLocation="http://sumo.dlr.de/xsd/net_file.xsd">

    <location netOffset="0.00,0.00" convBoundary="10.00,0.00,110.00,100.00" origBoundary="10000000000.00,10000000000.00,-10000000000.00,-10000000000.00" projParameter="!"/>

    <edge id=":J1_0" function="internal">
        <lane id=":J1_0_0" index="0" speed="6.51" length="9.03" shape="52.80,48.40 55.25,48.05 57.00,47.00 58.05,45.25 58.40,42.80"/>
    </edge>
    <edge id=":J1_1" function="internal">
        <lane id=":J1_1_0" index="0" speed="13.89" length="14.40" shape="52.80,48.40 67.20,48.40"/>
    </edge>
    <edge id=":J1_2" function="internal">
        <lane id=":J1_2_0" index="0" speed="7.33" length="11.73" shape="52.80,48.40 56.65,48.75 59.40,49.80 61.05,51.55 61.60,54.00"/>
    </edge>

    <edge id="E0" from="J0" to="J1" priority="-1">
        <lane id="E0_0" index="0" speed="13.89" length="42.80" shape="10.00,48.40 52.80,48.40"/>
    </edge>
    <edge id="E1" from="J1" to="J2" priority="-1">
        <lane id="E1_0" index="0" speed="13.89" length="42.80" shape="67.20,48.40 110.00,48.40"/>
    </edge>
    <edge id="E2" from="J1" to="J3" priority="-1">
        <lane id="E2_0" index="0" speed="13.89" length="46.00" shape="61.60,54.00 61.60,100.00"/>
    </edge>
    <edge id="E3" from="J1" to="J4" priority="-1">
        <lane id="E3_0" index="0" speed="13.89" length="42.80" shape="58.40,42.80 58.40,0.00"/>
    </edge>

    <junction id="J0" type="dead_end" x="10.00" y="50.00" incLanes="" intLanes="" shape="10.00,50.00 10.00,46.80"/>
    <junction id="J1" type="priority" x="60.00" y="50.00" incLanes="E0_0" intLanes=":J1_0_0 :J1_1_0 :J1_2_0" shape="60.00,54.00 63.20,54.00 63.64,51.78 64.20,51.00 64.98,50.44 65.98,50.11 67.20,50.00 67.20,46.80 65.00,46.69 63.20,46.36 61.80,45.80 60.80,45.02 60.20,44.02 60.00,42.80 56.80,42.80 56.36,45.02 55.80,45.80 55.02,46.36 54.02,46.69 52.80,46.80 52.80,50.00 55.00,50.11 56.80,50.44 58.20,51.00 59.20,51.78 59.80,52.78">
        <request index="0" response="000" foes="000" cont="0"/>
        <request index="1" response="000" foes="000" cont="0"/>
        <request index="2" response="000" foes="000" cont="0"/>
    </junction>
    <junction id="J2" type="dead_end" x="110.00" y="50.00" incLanes="E1_0" intLanes="" shape="110.00,46.80 110.00,50.00"/>
    <junction id="J3" type="dead_end" x="60.00" y="100.00" incLanes="E2_0" intLanes="" shape="63.20,100.00 60.00,100.00"/>
    <junction id="J4" type="dead_end" x="60.00" y="0.00" incLanes="E3_0" intLanes="" shape="56.80,0.00 60.00,0.00"/>

    <connection from="E0" to="E3" fromLane="0" toLane="0" via=":J1_0_0" dir="r" state="M"/>
    <connection from="E0" to="E1" fromLane="0" toLane="0" via=":J1_1_0" dir="s" state="M"/>
    <connection from="E0" to="E2" fromLane="0" toLane="0" via=":J1_2_0" dir="l" state="M"/>

    <connection from=":J1_0" to="E3" fromLane="0" toLane="0" dir="r" state="M"/>
    <connection from=":J1_1" to="E1" fromLane="0" toLane="0" dir="s" state="M"/>
    <connection from=":J1_2" to="E2" fromLane="0" toLane="0" dir="l" state="M"/>

</net>
