<?xml version="1.0" encoding="UTF-8"?>

<!-- generated on 2025-10-22 15:46:18 by Eclipse SUMO netedit Version 1.24.0
-->

<routes xmlns:xsi="http://www.w3.org/2001/XMLSchema-instance" xsi:noNamespaceSchemaLocation="http://sumo.dlr.de/xsd/routes_file.xsd">
    <!-- Vehicles, persons and containers (sorted by depart) -->
    <trip id="0" depart="0.00" from="E0" to="E1"/>
    <trip id="1" depart="0.00" departLane="1" departPos="65.15" from="E0" to="E1">
        <stop lane="E0_1" startPos="62.06" endPos="72.06" duration="40.00"/>
    </trip>
    <trip id="2" depart="0.00" departPos="65.36" from="E0" to="E1">
        <stop lane="E0_0" startPos="62.36" endPos="72.36" duration="40.00"/>
    </trip>
</routes>
