<?xml version="1.0" encoding="UTF-8"?>

<!-- generated on 2025-10-22 15:46:18 by Eclipse SUMO sumo Version 1.24.0
-->

<sumoConfiguration xmlns:xsi="http://www.w3.org/2001/XMLSchema-instance" xsi:noNamespaceSchemaLocation="http://sumo.dlr.de/xsd/sumoConfiguration.xsd">

    <input>
        <net-file value="Vehicle_Vehicle_Interacting.net.xml"/>
        <route-files value="Vehicle_Vehicle_Interacting.rou.xml"/>
    </input>

</sumoConfiguration>

