<configuration>
	<input>
		<net-file value="ForwardCollisionWarning.net.xml"/>
		<route-files value="ForwardCollisionWarning.rou.xml"/>
		
	</input>
	<time>
		<begin value="0"/>
		<end value="150"/>
	</time>
</configuration>
