<?xml version="1.0" encoding="UTF-8"?>

<!-- generated on 2025-06-05 18:31:04 by Eclipse SUMO netedit Version 1.15.0
<configuration xmlns:xsi="http://www.w3.org/2001/XMLSchema-instance" xsi:noNamespaceSchemaLocation="http://sumo.dlr.de/xsd/netconvertConfiguration.xsd">

    <input>
        <sumo-net-file value="E:\Analysis and Inference\Analysis and Inference\Autonomous Transportation Semantic Interaction Simulation Platform-2025.10\ATSISP\networkFiles\ForwardCollisionWarning\ForwardCollisionWarning.net.xml"/>
    </input>

    <output>
        <output-file value="E:\Analysis and Inference\Analysis and Inference\Autonomous Transportation Semantic Interaction Simulation Platform-2025.10\ATSISP\networkFiles\ForwardCollisionWarning\ForwardCollisionWarning.net.xml"/>
    </output>

    <processing>
        <geometry.min-radius.fix.railways value="false"/>
        <geometry.max-grade.fix value="false"/>
        <offset.disable-normalization value="true"/>
        <lefthand value="0"/>
    </processing>

    <junctions>
        <no-turnarounds value="true"/>
        <junctions.corner-detail value="5"/>
        <junctions.limit-turn-speed value="5.50"/>
        <rectangular-lane-cut value="0"/>
    </junctions>

    <pedestrian>
        <walkingareas value="0"/>
    </pedestrian>

    <netedit>
        <SUMOConfig-output value="E:\Analysis and Inference\Analysis and Inference\Autonomous Transportation Semantic Interaction Simulation Platform-2025.10\ATSISP\networkFiles\ForwardCollisionWarning\ForwardCollisionWarning.sumocfg"/>
        <route-files value="E:\Analysis and Inference\Analysis and Inference\Autonomous Transportation Semantic Interaction Simulation Platform-2025.10\ATSISP\networkFiles\ForwardCollisionWarning\ForwardCollisionWarning.rou.xml"/>  
    </netedit>

</configuration>
-->

<net version="1.9" junctionCornerDetail="5" limitTurnSpeed="5.50" xmlns:xsi="http://www.w3.org/2001/XMLSchema-instance" xsi:noNamespaceSchemaLocation="http://sumo.dlr.de/xsd/net_file.xsd">

    <location netOffset="0.00,0.00" convBoundary="-20.00,-20.00,140.00,140.00" origBoundary="-10000000000.00,-10000000000.00,10000000000.00,10000000000.00" projParameter="!"/>

    <edge id=":J2_0" function="internal">
        <lane id=":J2_0_0" index="0" speed="6.51" length="9.03" shape="55.20,70.40 54.85,67.95 53.80,66.20 52.05,65.15 49.60,64.80"/>
        <lane id=":J2_0_1" index="1" speed="7.33" length="11.73" shape="55.20,70.40 54.85,66.55 53.80,63.80 52.05,62.15 49.60,61.60"/>
    </edge>
    <edge id=":J2_2" function="internal">
        <lane id=":J2_2_0" index="0" speed="13.89" length="20.96" shape="55.20,70.40 55.20,49.60"/>
        <lane id=":J2_2_1" index="1" speed="13.89" length="20.96" shape="55.20,70.40 55.70,64.34 56.80,60.00 57.90,55.66 58.40,49.60"/>
    </edge>
    <edge id=":J2_4" function="internal">
        <lane id=":J2_4_0" index="0" speed="9.84" length="9.09" shape="58.40,70.40 59.15,63.75 60.18,61.58"/>
        <lane id=":J2_4_1" index="1" speed="9.26" length="5.99" shape="58.40,70.40 59.15,65.15 59.51,64.56"/>
    </edge>
    <edge id=":J2_24" function="internal">
        <lane id=":J2_24_0" index="0" speed="9.84" length="12.90" shape="60.18,61.58 61.40,59.00 65.15,56.15 70.40,55.20"/>
    </edge>
    <edge id=":J2_25" function="internal">
        <lane id=":J2_25_0" index="0" speed="9.26" length="13.36" shape="59.51,64.56 61.40,61.40 65.15,59.15 70.40,58.40"/>
    </edge>
    <edge id=":J2_6" function="internal">
        <lane id=":J2_6_0" index="0" speed="6.51" length="9.03" shape="70.40,64.80 67.95,65.15 66.20,66.20 65.15,67.95 64.80,70.40"/>
        <lane id=":J2_6_1" index="1" speed="7.33" length="11.73" shape="70.40,64.80 66.55,65.15 63.80,66.20 62.15,67.95 61.60,70.40"/>
    </edge>
    <edge id=":J2_8" function="internal">
        <lane id=":J2_8_0" index="0" speed="13.89" length="20.96" shape="70.40,64.80 49.60,64.80"/>
        <lane id=":J2_8_1" index="1" speed="13.89" length="20.96" shape="70.40,64.80 64.34,64.30 60.00,63.20 55.66,62.10 49.60,61.60"/>
    </edge>
    <edge id=":J2_10" function="internal">
        <lane id=":J2_10_0" index="0" speed="9.84" length="9.09" shape="70.40,61.60 63.75,60.85 61.58,59.82"/>
        <lane id=":J2_10_1" index="1" speed="9.26" length="5.99" shape="70.40,61.60 65.15,60.85 64.56,60.49"/>
    </edge>
    <edge id=":J2_26" function="internal">
        <lane id=":J2_26_0" index="0" speed="9.84" length="12.90" shape="61.58,59.82 59.00,58.60 56.15,54.85 55.20,49.60"/>
    </edge>
    <edge id=":J2_27" function="internal">
        <lane id=":J2_27_0" index="0" speed="9.26" length="13.36" shape="64.56,60.49 61.40,58.60 59.15,54.85 58.40,49.60"/>
    </edge>
    <edge id=":J2_12" function="internal">
        <lane id=":J2_12_0" index="0" speed="6.51" length="9.03" shape="64.80,49.60 65.15,52.05 66.20,53.80 67.95,54.85 70.40,55.20"/>
        <lane id=":J2_12_1" index="1" speed="7.33" length="11.73" shape="64.80,49.60 65.15,53.45 66.20,56.20 67.95,57.85 70.40,58.40"/>
    </edge>
    <edge id=":J2_14" function="internal">
        <lane id=":J2_14_0" index="0" speed="13.89" length="20.96" shape="64.80,49.60 64.80,70.40"/>
        <lane id=":J2_14_1" index="1" speed="13.89" length="20.96" shape="64.80,49.60 64.30,55.66 63.20,60.00 62.10,64.34 61.60,70.40"/>
    </edge>
    <edge id=":J2_16" function="internal">
        <lane id=":J2_16_0" index="0" speed="9.84" length="9.09" shape="61.60,49.60 60.85,56.25 59.82,58.42"/>
        <lane id=":J2_16_1" index="1" speed="9.26" length="5.99" shape="61.60,49.60 60.85,54.85 60.49,55.44"/>
    </edge>
    <edge id=":J2_28" function="internal">
        <lane id=":J2_28_0" index="0" speed="9.84" length="12.90" shape="59.82,58.42 58.60,61.00 54.85,63.85 49.60,64.80"/>
    </edge>
    <edge id=":J2_29" function="internal">
        <lane id=":J2_29_0" index="0" speed="9.26" length="13.36" shape="60.49,55.44 58.60,58.60 54.85,60.85 49.60,61.60"/>
    </edge>
    <edge id=":J2_18" function="internal">
        <lane id=":J2_18_0" index="0" speed="6.51" length="9.03" shape="49.60,55.20 52.05,54.85 53.80,53.80 54.85,52.05 55.20,49.60"/>
        <lane id=":J2_18_1" index="1" speed="7.33" length="11.73" shape="49.60,55.20 53.45,54.85 56.20,53.80 57.85,52.05 58.40,49.60"/>
    </edge>
    <edge id=":J2_20" function="internal">
        <lane id=":J2_20_0" index="0" speed="13.89" length="20.96" shape="49.60,55.20 70.40,55.20"/>
        <lane id=":J2_20_1" index="1" speed="13.89" length="20.96" shape="49.60,55.20 55.66,55.70 60.00,56.80 64.34,57.90 70.40,58.40"/>
    </edge>
    <edge id=":J2_22" function="internal">
        <lane id=":J2_22_0" index="0" speed="9.84" length="9.09" shape="49.60,58.40 56.25,59.15 58.42,60.18"/>
        <lane id=":J2_22_1" index="1" speed="9.26" length="5.99" shape="49.60,58.40 54.85,59.15 55.44,59.51"/>
    </edge>
    <edge id=":J2_30" function="internal">
        <lane id=":J2_30_0" index="0" speed="9.84" length="12.90" shape="58.42,60.18 61.00,61.40 63.85,65.15 64.80,70.40"/>
    </edge>
    <edge id=":J2_31" function="internal">
        <lane id=":J2_31_0" index="0" speed="9.26" length="13.36" shape="55.44,59.51 58.60,61.40 60.85,65.15 61.60,70.40"/>
    </edge>

    <edge id="-E0" from="J2" to="J1" priority="-1">
        <lane id="-E0_0" index="0" speed="13.89" length="69.60" shape="49.60,64.80 -20.00,64.80"/>
        <lane id="-E0_1" index="1" speed="13.89" length="69.60" shape="49.60,61.60 -20.00,61.60"/>
    </edge>
    <edge id="-E2" from="J5" to="J2" priority="-1">
        <lane id="-E2_0" index="0" speed="13.89" length="69.60" shape="140.00,64.80 70.40,64.80"/>
        <lane id="-E2_1" index="1" speed="13.89" length="69.60" shape="140.00,61.60 70.40,61.60"/>
    </edge>
    <edge id="-E3" from="J6" to="J2" priority="-1">
        <lane id="-E3_0" index="0" speed="13.89" length="69.60" shape="55.20,140.00 55.20,70.40"/>
        <lane id="-E3_1" index="1" speed="13.89" length="69.60" shape="58.40,140.00 58.40,70.40"/>
    </edge>
    <edge id="-E4" from="J7" to="J2" priority="-1">
        <lane id="-E4_0" index="0" speed="13.89" length="69.60" shape="64.80,-20.00 64.80,49.60"/>
        <lane id="-E4_1" index="1" speed="13.89" length="69.60" shape="61.60,-20.00 61.60,49.60"/>
    </edge>
    <edge id="E0" from="J1" to="J2" priority="-1">
        <lane id="E0_0" index="0" speed="13.89" length="69.60" shape="-20.00,55.20 49.60,55.20"/>
        <lane id="E0_1" index="1" speed="13.89" length="69.60" shape="-20.00,58.40 49.60,58.40"/>
    </edge>
    <edge id="E2" from="J2" to="J5" priority="-1">
        <lane id="E2_0" index="0" speed="13.89" length="69.60" shape="70.40,55.20 140.00,55.20"/>
        <lane id="E2_1" index="1" speed="13.89" length="69.60" shape="70.40,58.40 140.00,58.40"/>
    </edge>
    <edge id="E3" from="J2" to="J6" priority="-1">
        <lane id="E3_0" index="0" speed="13.89" length="69.60" shape="64.80,70.40 64.80,140.00"/>
        <lane id="E3_1" index="1" speed="13.89" length="69.60" shape="61.60,70.40 61.60,140.00"/>
    </edge>
    <edge id="E4" from="J2" to="J7" priority="-1">
        <lane id="E4_0" index="0" speed="13.89" length="69.60" shape="55.20,49.60 55.20,-20.00"/>
        <lane id="E4_1" index="1" speed="13.89" length="69.60" shape="58.40,49.60 58.40,-20.00"/>
    </edge>

    <tlLogic id="J2" type="static" programID="0" offset="0">
        <phase duration="33" state="GGGGggrrrrrrGGGGggrrrrrr"/>
        <phase duration="3"  state="yyyyggrrrrrryyyyggrrrrrr"/>
        <phase duration="6"  state="rrrrGGrrrrrrrrrrGGrrrrrr"/>
        <phase duration="3"  state="rrrryyrrrrrrrrrryyrrrrrr"/>
        <phase duration="33" state="rrrrrrGGGGggrrrrrrGGGGgg"/>
        <phase duration="3"  state="rrrrrryyyyggrrrrrryyyygg"/>
        <phase duration="6"  state="rrrrrrrrrrGGrrrrrrrrrrGG"/>
        <phase duration="3"  state="rrrrrrrrrryyrrrrrrrrrryy"/>
    </tlLogic>

    <junction id="J1" type="dead_end" x="-20.00" y="60.00" incLanes="-E0_0 -E0_1" intLanes="" shape="-20.00,60.00 -20.00,66.40 -20.00,60.00"/>
    <junction id="J2" type="traffic_light" x="60.00" y="60.00" incLanes="-E3_0 -E3_1 -E2_0 -E2_1 -E4_0 -E4_1 E0_0 E0_1" intLanes=":J2_0_0 :J2_0_1 :J2_2_0 :J2_2_1 :J2_24_0 :J2_25_0 :J2_6_0 :J2_6_1 :J2_8_0 :J2_8_1 :J2_26_0 :J2_27_0 :J2_12_0 :J2_12_1 :J2_14_0 :J2_14_1 :J2_28_0 :J2_29_0 :J2_18_0 :J2_18_1 :J2_20_0 :J2_20_1 :J2_30_0 :J2_31_0" shape="53.60,70.40 66.40,70.40 66.84,68.18 67.40,67.40 68.18,66.84 69.18,66.51 70.40,66.40 70.40,53.60 68.18,53.16 67.40,52.60 66.84,51.82 66.51,50.82 66.40,49.60 53.60,49.60 53.16,51.82 52.60,52.60 51.82,53.16 50.82,53.49 49.60,53.60 49.60,66.40 51.82,66.84 52.60,67.40 53.16,68.18 53.49,69.18">
        <request index="0"  response="000000000000000000000000" foes="000000110000001100000000" cont="0"/>
        <request index="1"  response="000000000000000000000000" foes="000000110000001100000000" cont="0"/>
        <request index="2"  response="110000000000110000000000" foes="111111110000111100000000" cont="0"/>
        <request index="3"  response="110000000000110000000000" foes="111111110000111100000000" cont="0"/>
        <request index="4"  response="110000011111110000000000" foes="111100011111111100000000" cont="1"/>
        <request index="5"  response="110000001111110000000000" foes="111100001111111100000000" cont="1"/>
        <request index="6"  response="000000001100000000000000" foes="110000001100000000000000" cont="0"/>
        <request index="7"  response="000000001100000000000000" foes="110000001100000000000000" cont="0"/>
        <request index="8"  response="000000111100000000111111" foes="110000111100000000111111" cont="0"/>
        <request index="9"  response="000000111100000000111111" foes="110000111100000000111111" cont="0"/>
        <request index="10" response="011111111100000000111100" foes="011111111100000000111100" cont="1"/>
        <request index="11" response="001111111100000000111100" foes="001111111100000000111100" cont="1"/>
        <request index="12" response="000000000000000000000000" foes="001100000000000000110000" cont="0"/>
        <request index="13" response="000000000000000000000000" foes="001100000000000000110000" cont="0"/>
        <request index="14" response="110000000000110000000000" foes="111100000000111111110000" cont="0"/>
        <request index="15" response="110000000000110000000000" foes="111100000000111111110000" cont="0"/>
        <request index="16" response="110000000000110000001111" foes="111100000000111100011111" cont="1"/>
        <request index="17" response="110000000000110000001111" foes="111100000000111100001111" cont="1"/>
        <request index="18" response="000000000000000000001100" foes="000000000000110000001100" cont="0"/>
        <request index="19" response="000000000000000000001100" foes="000000000000110000001100" cont="0"/>
        <request index="20" response="000000111111000000111100" foes="000000111111110000111100" cont="0"/>
        <request index="21" response="000000111111000000111100" foes="000000111111110000111100" cont="0"/>
        <request index="22" response="000000111100001111111100" foes="000000111100011111111100" cont="1"/>
        <request index="23" response="000000111100001111111100" foes="000000111100001111111100" cont="1"/>
    </junction>
    <junction id="J5" type="dead_end" x="140.00" y="60.00" incLanes="E2_0 E2_1" intLanes="" shape="140.00,60.00 140.00,53.60 140.00,60.00"/>
    <junction id="J6" type="dead_end" x="60.00" y="140.00" incLanes="E3_0 E3_1" intLanes="" shape="60.00,140.00 66.40,140.00 60.00,140.00"/>
    <junction id="J7" type="dead_end" x="60.00" y="-20.00" incLanes="E4_0 E4_1" intLanes="" shape="60.00,-20.00 53.60,-20.00 60.00,-20.00"/>

    <junction id=":J2_24_0" type="internal" x="60.18" y="61.58" incLanes=":J2_4_0 -E4_0" intLanes=":J2_8_0 :J2_8_1 :J2_10_0 :J2_10_1 :J2_12_0 :J2_12_1 :J2_14_0 :J2_14_1 :J2_20_0 :J2_20_1 :J2_22_0 :J2_22_1"/>
    <junction id=":J2_25_0" type="internal" x="59.51" y="64.56" incLanes=":J2_4_1 -E4_0" intLanes=":J2_8_0 :J2_8_1 :J2_10_0 :J2_10_1 :J2_12_0 :J2_12_1 :J2_14_0 :J2_14_1 :J2_20_0 :J2_20_1 :J2_22_0 :J2_22_1"/>
    <junction id=":J2_26_0" type="internal" x="61.58" y="59.82" incLanes=":J2_10_0 E0_0" intLanes=":J2_2_0 :J2_2_1 :J2_4_0 :J2_4_1 :J2_14_0 :J2_14_1 :J2_16_0 :J2_16_1 :J2_18_0 :J2_18_1 :J2_20_0 :J2_20_1"/>
    <junction id=":J2_27_0" type="internal" x="64.56" y="60.49" incLanes=":J2_10_1 E0_0" intLanes=":J2_2_0 :J2_2_1 :J2_4_0 :J2_4_1 :J2_14_0 :J2_14_1 :J2_16_0 :J2_16_1 :J2_18_0 :J2_18_1 :J2_20_0 :J2_20_1"/>
    <junction id=":J2_28_0" type="internal" x="59.82" y="58.42" incLanes=":J2_16_0 -E3_0" intLanes=":J2_0_0 :J2_0_1 :J2_2_0 :J2_2_1 :J2_8_0 :J2_8_1 :J2_10_0 :J2_10_1 :J2_20_0 :J2_20_1 :J2_22_0 :J2_22_1"/>
    <junction id=":J2_29_0" type="internal" x="60.49" y="55.44" incLanes=":J2_16_1 -E3_0" intLanes=":J2_0_0 :J2_0_1 :J2_2_0 :J2_2_1 :J2_8_0 :J2_8_1 :J2_10_0 :J2_10_1 :J2_20_0 :J2_20_1 :J2_22_0 :J2_22_1"/>
    <junction id=":J2_30_0" type="internal" x="58.42" y="60.18" incLanes=":J2_22_0 -E2_0" intLanes=":J2_2_0 :J2_2_1 :J2_4_0 :J2_4_1 :J2_6_0 :J2_6_1 :J2_8_0 :J2_8_1 :J2_14_0 :J2_14_1 :J2_16_0 :J2_16_1"/>
    <junction id=":J2_31_0" type="internal" x="55.44" y="59.51" incLanes=":J2_22_1 -E2_0" intLanes=":J2_2_0 :J2_2_1 :J2_4_0 :J2_4_1 :J2_6_0 :J2_6_1 :J2_8_0 :J2_8_1 :J2_14_0 :J2_14_1 :J2_16_0 :J2_16_1"/>

    <connection from="-E2" to="E3" fromLane="0" toLane="0" via=":J2_6_0" tl="J2" linkIndex="6" dir="r" state="o"/>
    <connection from="-E2" to="E3" fromLane="0" toLane="1" via=":J2_6_1" tl="J2" linkIndex="7" dir="r" state="o"/>
    <connection from="-E2" to="-E0" fromLane="0" toLane="0" via=":J2_8_0" tl="J2" linkIndex="8" dir="s" state="o"/>
    <connection from="-E2" to="-E0" fromLane="0" toLane="1" via=":J2_8_1" tl="J2" linkIndex="9" dir="s" state="o"/>
    <connection from="-E2" to="E4" fromLane="1" toLane="0" via=":J2_10_0" tl="J2" linkIndex="10" dir="l" state="o"/>
    <connection from="-E2" to="E4" fromLane="1" toLane="1" via=":J2_10_1" tl="J2" linkIndex="11" dir="l" state="o"/>
    <connection from="-E3" to="-E0" fromLane="0" toLane="0" via=":J2_0_0" tl="J2" linkIndex="0" dir="r" state="O"/>
    <connection from="-E3" to="-E0" fromLane="0" toLane="1" via=":J2_0_1" tl="J2" linkIndex="1" dir="r" state="O"/>
    <connection from="-E3" to="E4" fromLane="0" toLane="0" via=":J2_2_0" tl="J2" linkIndex="2" dir="s" state="O"/>
    <connection from="-E3" to="E4" fromLane="0" toLane="1" via=":J2_2_1" tl="J2" linkIndex="3" dir="s" state="O"/>
    <connection from="-E3" to="E2" fromLane="1" toLane="0" via=":J2_4_0" tl="J2" linkIndex="4" dir="l" state="o"/>
    <connection from="-E3" to="E2" fromLane="1" toLane="1" via=":J2_4_1" tl="J2" linkIndex="5" dir="l" state="o"/>
    <connection from="-E4" to="E2" fromLane="0" toLane="0" via=":J2_12_0" tl="J2" linkIndex="12" dir="r" state="O"/>
    <connection from="-E4" to="E2" fromLane="0" toLane="1" via=":J2_12_1" tl="J2" linkIndex="13" dir="r" state="O"/>
    <connection from="-E4" to="E3" fromLane="0" toLane="0" via=":J2_14_0" tl="J2" linkIndex="14" dir="s" state="O"/>
    <connection from="-E4" to="E3" fromLane="0" toLane="1" via=":J2_14_1" tl="J2" linkIndex="15" dir="s" state="O"/>
    <connection from="-E4" to="-E0" fromLane="1" toLane="0" via=":J2_16_0" tl="J2" linkIndex="16" dir="l" state="o"/>
    <connection from="-E4" to="-E0" fromLane="1" toLane="1" via=":J2_16_1" tl="J2" linkIndex="17" dir="l" state="o"/>
    <connection from="E0" to="E4" fromLane="0" toLane="0" via=":J2_18_0" tl="J2" linkIndex="18" dir="r" state="o"/>
    <connection from="E0" to="E4" fromLane="0" toLane="1" via=":J2_18_1" tl="J2" linkIndex="19" dir="r" state="o"/>
    <connection from="E0" to="E2" fromLane="0" toLane="0" via=":J2_20_0" tl="J2" linkIndex="20" dir="s" state="o"/>
    <connection from="E0" to="E2" fromLane="0" toLane="1" via=":J2_20_1" tl="J2" linkIndex="21" dir="s" state="o"/>
    <connection from="E0" to="E3" fromLane="1" toLane="0" via=":J2_22_0" tl="J2" linkIndex="22" dir="l" state="o"/>
    <connection from="E0" to="E3" fromLane="1" toLane="1" via=":J2_22_1" tl="J2" linkIndex="23" dir="l" state="o"/>

    <connection from=":J2_0" to="-E0" fromLane="0" toLane="0" dir="r" state="M"/>
    <connection from=":J2_0" to="-E0" fromLane="1" toLane="1" dir="r" state="M"/>
    <connection from=":J2_2" to="E4" fromLane="0" toLane="0" dir="s" state="M"/>
    <connection from=":J2_2" to="E4" fromLane="1" toLane="1" dir="s" state="M"/>
    <connection from=":J2_4" to="E2" fromLane="0" toLane="0" via=":J2_24_0" dir="l" state="m"/>
    <connection from=":J2_24" to="E2" fromLane="0" toLane="0" dir="l" state="M"/>
    <connection from=":J2_4" to="E2" fromLane="1" toLane="1" via=":J2_25_0" dir="l" state="m"/>
    <connection from=":J2_25" to="E2" fromLane="0" toLane="1" dir="l" state="M"/>
    <connection from=":J2_6" to="E3" fromLane="0" toLane="0" dir="r" state="M"/>
    <connection from=":J2_6" to="E3" fromLane="1" toLane="1" dir="r" state="M"/>
    <connection from=":J2_8" to="-E0" fromLane="0" toLane="0" dir="s" state="M"/>
    <connection from=":J2_8" to="-E0" fromLane="1" toLane="1" dir="s" state="M"/>
    <connection from=":J2_10" to="E4" fromLane="0" toLane="0" via=":J2_26_0" dir="l" state="m"/>
    <connection from=":J2_26" to="E4" fromLane="0" toLane="0" dir="l" state="M"/>
    <connection from=":J2_10" to="E4" fromLane="1" toLane="1" via=":J2_27_0" dir="l" state="m"/>
    <connection from=":J2_27" to="E4" fromLane="0" toLane="1" dir="l" state="M"/>
    <connection from=":J2_12" to="E2" fromLane="0" toLane="0" dir="r" state="M"/>
    <connection from=":J2_12" to="E2" fromLane="1" toLane="1" dir="r" state="M"/>
    <connection from=":J2_14" to="E3" fromLane="0" toLane="0" dir="s" state="M"/>
    <connection from=":J2_14" to="E3" fromLane="1" toLane="1" dir="s" state="M"/>
    <connection from=":J2_16" to="-E0" fromLane="0" toLane="0" via=":J2_28_0" dir="l" state="m"/>
    <connection from=":J2_28" to="-E0" fromLane="0" toLane="0" dir="l" state="M"/>
    <connection from=":J2_16" to="-E0" fromLane="1" toLane="1" via=":J2_29_0" dir="l" state="m"/>
    <connection from=":J2_29" to="-E0" fromLane="0" toLane="1" dir="l" state="M"/>
    <connection from=":J2_18" to="E4" fromLane="0" toLane="0" dir="r" state="M"/>
    <connection from=":J2_18" to="E4" fromLane="1" toLane="1" dir="r" state="M"/>
    <connection from=":J2_20" to="E2" fromLane="0" toLane="0" dir="s" state="M"/>
    <connection from=":J2_20" to="E2" fromLane="1" toLane="1" dir="s" state="M"/>
    <connection from=":J2_22" to="E3" fromLane="0" toLane="0" via=":J2_30_0" dir="l" state="m"/>
    <connection from=":J2_30" to="E3" fromLane="0" toLane="0" dir="l" state="M"/>
    <connection from=":J2_22" to="E3" fromLane="1" toLane="1" via=":J2_31_0" dir="l" state="m"/>
    <connection from=":J2_31" to="E3" fromLane="0" toLane="1" dir="l" state="M"/>

</net>
